Carbon_emission/Feeders/8500-Node/IEEE8500_VLL_Node.Txt

LINE-LINE VOLTAGES BY BUS & NODE

Bus                  Node    VLN (kV)   Angle      pu     Base kV 

SOURCEBUS .......... 1-2     120.75 /_   30.0      1.05   115.000
   -                 2-3     120.75 /_  -90.0      1.05   115.000
   -                 3-1     120.75 /_  150.0      1.05   115.000
_HVMV_SUB_LSB ...... 1-2     13.072 /_    0.8    1.0483    12.470
   -                 2-3     13.098 /_ -118.9    1.0503    12.470
   -                 3-1     13.149 /_  120.8    1.0544    12.470
HVMV_SUB_48332 ..... 1-2     13.072 /_    0.8    1.0483    12.470
   -                 2-3     13.098 /_ -118.9    1.0503    12.470
   -                 3-1     13.149 /_  120.8    1.0544    12.470
M1009763 ........... 1-2     12.513 /_   -0.6    1.0035    12.470
   -                 2-3     12.386 /_ -116.9   0.99323    12.470
   -                 3-1     13.136 /_  121.8    1.0534    12.470
L2673322 ........... 1-2     10.999 /_   31.9   0.88207    12.470
   -                 2-3     10.999 /_ -148.1   0.88207    12.470
   -                 3-1 1.0168E-015 /_ -116.6 8.1543E-017    12.470
   -                 3-1 1.0168E-015 /_ -116.6 8.1543E-017    12.470
L3085398 ........... 1-2     12.564 /_   -0.5    1.0076    12.470
   -                 2-3     12.421 /_ -116.9   0.99604    12.470
   -                 3-1     13.166 /_  121.8    1.0558    12.470
M1026891 ........... 1-2     12.559 /_   -0.5    1.0072    12.470
   -                 2-3     12.416 /_ -116.9   0.99569    12.470
   -                 3-1     13.164 /_  121.8    1.0556    12.470
L3216367 ........... 1-2     12.604 /_   -0.3    1.0107    12.470
   -                 2-3     12.419 /_ -116.9   0.99588    12.470
   -                 3-1     13.157 /_  122.1    1.0551    12.470
M1069468 ........... 1-2     12.603 /_   -0.3    1.0107    12.470
   -                 2-3     12.417 /_ -116.9   0.99578    12.470
   -                 3-1     13.156 /_  122.1     1.055    12.470
M1047592 ........... 1-2     12.677 /_   -0.3    1.0166    12.470
   -                 2-3     12.491 /_ -116.9    1.0017    12.470
   -                 3-1     13.238 /_  122.1    1.0616    12.470
M1047339 ........... 1-2     12.832 /_   -0.3     1.029    12.470
   -                 2-3     12.905 /_ -119.5    1.0348    12.470
   -                 3-1     13.033 /_  119.8    1.0452    12.470
M1026915 ........... 1-2     12.564 /_   -0.5    1.0076    12.470
   -                 2-3     12.422 /_ -116.9   0.99616    12.470
   -                 3-1     13.165 /_  121.8    1.0557    12.470
M1026920 ........... 1-2     12.562 /_   -0.5    1.0074    12.470
   -                 2-3     12.421 /_ -116.9    0.9961    12.470
   -                 3-1     13.163 /_  121.8    1.0556    12.470
M1069464 ........... 1-2     12.601 /_   -0.4    1.0105    12.470
   -                 2-3     12.415 /_ -116.9   0.99559    12.470
   -                 3-1     13.154 /_  122.1    1.0549    12.470
N1144665 ........... 1-2     12.702 /_   -0.2    1.0186    12.470
   -                 2-3     12.505 /_ -116.8    1.0028    12.470
   -                 3-1     13.247 /_  122.2    1.0623    12.470
M1047515 ........... 1-2     12.697 /_   -0.2    1.0182    12.470
   -                 2-3     12.501 /_ -116.8    1.0025    12.470
   -                 3-1     13.242 /_  122.2    1.0619    12.470
M1047312 ........... 1-2     12.805 /_   -0.4    1.0268    12.470
   -                 2-3     12.884 /_ -119.5    1.0332    12.470
   -                 3-1     13.018 /_  119.8    1.0439    12.470
L2822871 ........... 1-2     12.599 /_   -0.4    1.0104    12.470
   -                 2-3     12.448 /_ -116.9   0.99824    12.470
   -                 3-1     13.188 /_  121.9    1.0576    12.470
   -                 3-1     13.188 /_  121.9    1.0576    12.470
M1026872 ........... 1-2     12.596 /_   -0.4    1.0101    12.470
   -                 2-3     12.446 /_ -116.9   0.99807    12.470
   -                 3-1     13.186 /_  121.9    1.0574    12.470
N1140827 ........... 1-2     12.561 /_    0.0    1.0073    12.470
   -                 2-3     12.443 /_ -116.9   0.99782    12.470
   -                 3-1     13.091 /_  122.0    1.0498    12.470
M1026726 ........... 1-2     12.561 /_    0.0    1.0073    12.470
   -                 2-3     12.443 /_ -116.9   0.99782    12.470
   -                 3-1     13.091 /_  122.0    1.0498    12.470
L2730106 ........... 1-2     12.915 /_    3.4    1.0357    12.470
   -                 2-3     13.091 /_ -116.1    1.0498    12.470
   -                 3-1     13.109 /_  123.0    1.0513    12.470
   -                 3-1     13.109 /_  123.0    1.0513    12.470
N1142099 ........... 1-2     12.914 /_    3.4    1.0356    12.470
   -                 2-3     13.091 /_ -116.0    1.0498    12.470
   -                 3-1     13.109 /_  123.0    1.0512    12.470
M1026658 ........... 1-2     12.555 /_    0.0    1.0069    12.470
   -                 2-3     12.439 /_ -116.9   0.99753    12.470
   -                 3-1     13.081 /_  122.0     1.049    12.470
L3048962 ........... 1-2     11.192 /_  -27.0   0.89751    12.470
   -                 2-3 1.875E-015 /_ -166.0 1.5036E-016    12.470
   -                 3-1     11.192 /_  153.0   0.89751    12.470
   -                 3-1     11.192 /_  153.0   0.89751    12.470
L2991914 ........... 1-2     12.654 /_   -0.2    1.0148    12.470
   -                 2-3     12.476 /_ -116.8    1.0005    12.470
   -                 3-1     13.198 /_  122.2    1.0584    12.470
M1047503 ........... 1-2     12.652 /_   -0.2    1.0146    12.470
   -                 2-3     12.475 /_ -116.8    1.0004    12.470
   -                 3-1     13.195 /_  122.2    1.0581    12.470
M1026702 ........... 1-2     12.577 /_    0.0    1.0086    12.470
   -                 2-3      12.45 /_ -116.8   0.99836    12.470
   -                 3-1      13.11 /_  122.0    1.0513    12.470
N1139551 ........... 1-2      12.57 /_    0.0     1.008    12.470
   -                 2-3     12.447 /_ -116.8   0.99818    12.470
   -                 3-1     13.101 /_  122.0    1.0506    12.470
M1069424 ........... 1-2     12.587 /_   -0.4    1.0094    12.470
   -                 2-3     12.398 /_ -116.9   0.99419    12.470
   -                 3-1     13.144 /_  122.0     1.054    12.470
L2935549 ........... 1-2     12.586 /_   -0.4    1.0093    12.470
   -                 2-3     12.395 /_ -116.9     0.994    12.470
   -                 3-1     13.143 /_  122.0    1.0539    12.470
M1026795 ........... 1-2      12.63 /_   -0.1    1.0128    12.470
   -                 2-3     12.466 /_ -116.8    0.9997    12.470
   -                 3-1     13.169 /_  122.1     1.056    12.470
L3030199 ........... 1-2     13.051 /_    1.8    1.0466    12.470
   -                 2-3     13.142 /_ -117.8    1.0539    12.470
   -                 3-1     13.171 /_  121.7    1.0562    12.470
M1125934 ........... 1-2     13.052 /_    1.8    1.0466    12.470
   -                 2-3     13.142 /_ -117.8    1.0539    12.470
   -                 3-1     13.171 /_  121.7    1.0562    12.470
   -                 3-1     13.171 /_  121.7    1.0562    12.470
M1069189 ........... 1-2     12.931 /_    0.4     1.037    12.470
   -                 2-3     12.968 /_ -119.0      1.04    12.470
   -                 3-1     13.067 /_  120.6    1.0479    12.470
221-312488 ......... 1-2     12.917 /_    3.1    1.0358    12.470
   -                 2-3      13.08 /_ -116.4    1.0489    12.470
   -                 3-1     13.101 /_  122.7    1.0506    12.470
M1089183 ........... 1-2     12.917 /_    3.1    1.0358    12.470
   -                 2-3      13.08 /_ -116.4    1.0489    12.470
   -                 3-1     13.101 /_  122.7    1.0506    12.470
F739845 ............ 1-2     12.788 /_   -0.4    1.0255    12.470
   -                 2-3     12.869 /_ -119.4     1.032    12.470
   -                 3-1     13.009 /_  119.8    1.0432    12.470
293471 ............. 1-2     12.788 /_   -0.4    1.0255    12.470
   -                 2-3     12.869 /_ -119.4     1.032    12.470
   -                 3-1     13.009 /_  119.8    1.0432    12.470
M1026783 ........... 1-2     12.623 /_   -0.1    1.0123    12.470
   -                 2-3     12.464 /_ -116.8   0.99953    12.470
   -                 3-1     13.161 /_  122.1    1.0554    12.470
M1026780 ........... 1-2     12.622 /_   -0.1    1.0122    12.470
   -                 2-3     12.464 /_ -116.8   0.99951    12.470
   -                 3-1      13.16 /_  122.1    1.0553    12.470
N1140819 ........... 1-2     12.564 /_    0.0    1.0075    12.470
   -                 2-3     12.444 /_ -116.8   0.99795    12.470
   -                 3-1     13.094 /_  122.0    1.0501    12.470
M1026700 ........... 1-2     12.563 /_    0.0    1.0075    12.470
   -                 2-3     12.444 /_ -116.9   0.99791    12.470
   -                 3-1     13.093 /_  122.0      1.05    12.470
L2879070 ........... 1-2     12.666 /_   -0.3    1.0157    12.470
   -                 2-3     12.486 /_ -116.9    1.0013    12.470
   -                 3-1      13.23 /_  122.1     1.061    12.470
L3216345 ........... 1-2     12.659 /_   -0.3    1.0152    12.470
   -                 2-3     12.483 /_ -116.9     1.001    12.470
   -                 3-1     13.226 /_  122.0    1.0606    12.470
M1069428 ........... 1-2     12.589 /_   -0.4    1.0095    12.470
   -                 2-3       12.4 /_ -116.9   0.99435    12.470
   -                 3-1     13.145 /_  122.0    1.0541    12.470
Q14412 ............. 1-2     12.825 /_   -0.3    1.0285    12.470
   -                 2-3     12.899 /_ -119.5    1.0344    12.470
   -                 3-1     13.029 /_  119.8    1.0449    12.470
M1047325 ........... 1-2     12.823 /_   -0.3    1.0283    12.470
   -                 2-3     12.898 /_ -119.5    1.0343    12.470
   -                 3-1     13.028 /_  119.8    1.0448    12.470
L2973151 ........... 1-2      11.22 /_  -28.3   0.89973    12.470
   -                 2-3 8.1981E-016 /_  -56.3 6.5742E-017    12.470
   -                 3-1      11.22 /_  151.7   0.89973    12.470
   -                 3-1      11.22 /_  151.7   0.89973    12.470
M1108529 ........... 1-2     12.894 /_    2.4     1.034    12.470
   -                 2-3     12.831 /_ -115.8    1.0289    12.470
   -                 3-1     13.211 /_  123.5    1.0594    12.470
M1108532 ........... 1-2     12.892 /_    2.4    1.0339    12.470
   -                 2-3      12.83 /_ -115.8    1.0289    12.470
   -                 3-1     13.211 /_  123.5    1.0594    12.470
M1047346 ........... 1-2     12.843 /_   -0.3    1.0299    12.470
   -                 2-3     12.912 /_ -119.5    1.0354    12.470
   -                 3-1      13.04 /_  119.8    1.0457    12.470
M1047345 ........... 1-2      12.84 /_   -0.3    1.0297    12.470
   -                 2-3      12.91 /_ -119.5    1.0353    12.470
   -                 3-1     13.038 /_  119.8    1.0456    12.470
L2767340 ........... 1-2     12.947 /_    2.9    1.0383    12.470
   -                 2-3       13.1 /_ -116.6    1.0505    12.470
   -                 3-1     13.122 /_  122.6    1.0523    12.470
M3037449 ........... 1-2     12.947 /_    2.9    1.0383    12.470
   -                 2-3       13.1 /_ -116.6    1.0505    12.470
   -                 3-1     13.122 /_  122.6    1.0523    12.470
L2674027 ........... 1-2     12.881 /_    3.4     1.033    12.470
   -                 2-3     13.081 /_ -116.0     1.049    12.470
   -                 3-1     13.099 /_  122.9    1.0505    12.470
L2692633 ........... 1-2     12.876 /_    3.4    1.0326    12.470
   -                 2-3      13.08 /_ -116.0    1.0489    12.470
   -                 3-1     13.098 /_  122.9    1.0504    12.470
M1069135 ........... 1-2      12.86 /_   -0.3    1.0313    12.470
   -                 2-3     12.923 /_ -119.5    1.0363    12.470
   -                 3-1     13.049 /_  119.9    1.0465    12.470
R18242 ............. 1-2     12.858 /_   -0.3    1.0311    12.470
   -                 2-3     12.922 /_ -119.5    1.0363    12.470
   -                 3-1     13.049 /_  119.8    1.0464    12.470
M1047534 ........... 1-2     12.788 /_   -0.1    1.0255    12.470
   -                 2-3     12.558 /_ -116.7    1.0071    12.470
   -                 3-1     13.321 /_  122.4    1.0682    12.470
N1136663 ........... 1-2     12.766 /_   -0.2    1.0237    12.470
   -                 2-3     12.544 /_ -116.8     1.006    12.470
   -                 3-1     13.303 /_  122.3    1.0668    12.470
L2973153 ........... 1-2     12.662 /_   -0.3    1.0154    12.470
   -                 2-3     12.472 /_ -116.8    1.0002    12.470
   -                 3-1     13.233 /_  122.2    1.0612    12.470
N1136998 ........... 1-2     12.661 /_   -0.3    1.0153    12.470
   -                 2-3     12.472 /_ -116.8    1.0001    12.470
   -                 3-1     13.233 /_  122.1    1.0611    12.470
M1142871 ........... 1-2     13.009 /_    2.2    1.0432    12.470
   -                 2-3     13.123 /_ -117.3    1.0524    12.470
   -                 3-1     13.151 /_  122.0    1.0546    12.470
M1142874 ........... 1-2     13.007 /_    2.3    1.0431    12.470
   -                 2-3     13.122 /_ -117.3    1.0523    12.470
   -                 3-1      13.15 /_  122.0    1.0545    12.470
L2955081 ........... 1-2     13.055 /_    1.7    1.0469    12.470
   -                 2-3     13.143 /_ -118.0     1.054    12.470
   -                 3-1     13.169 /_  121.5     1.056    12.470
M1108315 ........... 1-2     13.055 /_    1.7    1.0469    12.470
   -                 2-3     13.143 /_ -118.0     1.054    12.470
   -                 3-1     13.168 /_  121.5     1.056    12.470
L2973162 ........... 1-2     12.744 /_   -0.4     1.022    12.470
   -                 2-3     12.836 /_ -119.4    1.0294    12.470
   -                 3-1     12.993 /_  119.7     1.042    12.470
M1026333 ........... 1-2     12.742 /_   -0.4    1.0218    12.470
   -                 2-3     12.835 /_ -119.4    1.0293    12.470
   -                 3-1     12.993 /_  119.7    1.0419    12.470
M1026854 ........... 1-2     12.625 /_   -0.4    1.0124    12.470
   -                 2-3     12.465 /_ -116.9    0.9996    12.470
   -                 3-1     13.204 /_  122.0    1.0589    12.470
D6413567-3_INT ..... 1-2     12.921 /_    0.3    1.0362    12.470
   -                 2-3     12.962 /_ -119.1    1.0395    12.470
   -                 3-1     13.063 /_  120.5    1.0476    12.470
E182724 ............ 1-2     12.921 /_    0.3    1.0362    12.470
   -                 2-3     12.962 /_ -119.1    1.0395    12.470
   -                 3-1     13.063 /_  120.5    1.0476    12.470
N1139541 ........... 1-2     12.922 /_    0.3    1.0362    12.470
   -                 2-3     12.963 /_ -119.0    1.0395    12.470
   -                 3-1     13.063 /_  120.5    1.0476    12.470
M4122658 ........... 1-2     12.922 /_    3.3    1.0362    12.470
   -                 2-3     13.093 /_ -116.2      1.05    12.470
   -                 3-1     13.112 /_  122.9    1.0515    12.470
L2933135 ........... 1-2     12.922 /_    3.3    1.0362    12.470
   -                 2-3     13.093 /_ -116.2      1.05    12.470
   -                 3-1     13.112 /_  122.9    1.0515    12.470
L2729414 ........... 1-2     12.577 /_    0.0    1.0086    12.470
   -                 2-3      12.45 /_ -116.8   0.99836    12.470
   -                 3-1      13.11 /_  122.0    1.0513    12.470
   -                 3-1      13.11 /_  122.0    1.0513    12.470
L2860490 ........... 1-2      12.85 /_   -0.3    1.0305    12.470
   -                 2-3     12.917 /_ -119.5    1.0359    12.470
   -                 3-1     13.044 /_  119.8    1.0461    12.470
L3104134 ........... 1-2     12.846 /_   -0.3    1.0302    12.470
   -                 2-3     12.914 /_ -119.5    1.0356    12.470
   -                 3-1     13.042 /_  119.8    1.0458    12.470
   -                 3-1     13.042 /_  119.8    1.0458    12.470
M1089118 ........... 1-2     12.956 /_    0.6    1.0389    12.470
   -                 2-3     12.993 /_ -118.8    1.0419    12.470
   -                 3-1     13.087 /_  120.8    1.0495    12.470
L3048208 ........... 1-2     11.259 /_  -28.0   0.90292    12.470
   -                 2-3 6.4311E-016 /_ -135.0 5.1573E-017    12.470
   -                 3-1     11.259 /_  152.0   0.90292    12.470
   -                 3-1     11.259 /_  152.0   0.90292    12.470
M1108505 ........... 1-2     12.894 /_    3.5     1.034    12.470
   -                 2-3     13.086 /_ -115.9    1.0494    12.470
   -                 3-1     13.103 /_  123.1    1.0507    12.470
L2955047 ........... 1-2      12.89 /_    3.5    1.0337    12.470
   -                 2-3     13.084 /_ -116.0    1.0493    12.470
   -                 3-1     13.102 /_  123.0    1.0507    12.470
L3214071 ........... 1-2     12.979 /_    2.6    1.0408    12.470
   -                 2-3     13.112 /_ -117.0    1.0514    12.470
   -                 3-1     13.136 /_  122.3    1.0534    12.470
M1125952 ........... 1-2     12.976 /_    2.6    1.0406    12.470
   -                 2-3      13.11 /_ -116.9    1.0514    12.470
   -                 3-1     13.135 /_  122.3    1.0533    12.470
L3142049 ........... 1-2      12.91 /_    3.5    1.0353    12.470
   -                 2-3      13.09 /_ -116.0    1.0497    12.470
   -                 3-1     13.108 /_  123.1    1.0511    12.470
M1108493 ........... 1-2     12.907 /_    3.5    1.0351    12.470
   -                 2-3      13.09 /_ -115.9    1.0497    12.470
   -                 3-1     13.106 /_  123.1     1.051    12.470
M1069169 ........... 1-2     12.915 /_    0.3    1.0357    12.470
   -                 2-3     12.959 /_ -119.1    1.0392    12.470
   -                 3-1     13.061 /_  120.4    1.0474    12.470
L3010556 ........... 1-2      12.91 /_    0.2    1.0353    12.470
   -                 2-3     12.956 /_ -119.1     1.039    12.470
   -                 3-1      13.06 /_  120.4    1.0473    12.470
M1026330 ........... 1-2     12.739 /_   -0.4    1.0216    12.470
   -                 2-3     12.832 /_ -119.4     1.029    12.470
   -                 3-1     12.993 /_  119.7    1.0419    12.470
M1108381 ........... 1-2      12.92 /_    3.1    1.0361    12.470
   -                 2-3     13.082 /_ -116.4    1.0491    12.470
   -                 3-1     13.104 /_  122.7    1.0508    12.470
L3254237 ........... 1-2     12.919 /_    3.1     1.036    12.470
   -                 2-3     13.082 /_ -116.4    1.0491    12.470
   -                 3-1     13.103 /_  122.7    1.0508    12.470
M1069519 ........... 1-2     12.761 /_    1.4    1.0234    12.470
   -                 2-3     12.779 /_ -116.5    1.0248    12.470
   -                 3-1     13.179 /_  122.4    1.0569    12.470
L3120503 ........... 1-2      10.75 /_  -30.1   0.86204    12.470
   -                 2-3 2.2737E-016 /_  -90.0 1.8234E-017    12.470
   -                 3-1      10.75 /_  149.9   0.86204    12.470
   -                 3-1      10.75 /_  149.9   0.86204    12.470
M1089145 ........... 1-2     12.972 /_    1.1    1.0402    12.470
   -                 2-3     13.055 /_ -118.5    1.0469    12.470
   -                 3-1     13.095 /_  121.0    1.0501    12.470
L3215385 ........... 1-2     12.972 /_    1.1    1.0402    12.470
   -                 2-3     13.055 /_ -118.5    1.0469    12.470
   -                 3-1     13.095 /_  121.0    1.0501    12.470
M1026852 ........... 1-2     12.617 /_   -0.4    1.0118    12.470
   -                 2-3      12.46 /_ -116.9   0.99922    12.470
   -                 3-1       13.2 /_  121.9    1.0585    12.470
M1069420 ........... 1-2     12.584 /_   -0.4    1.0091    12.470
   -                 2-3     12.393 /_ -116.9    0.9938    12.470
   -                 3-1     13.141 /_  122.0    1.0538    12.470
E182732 ............ 1-2     12.601 /_   -0.1    1.0105    12.470
   -                 2-3     12.457 /_ -116.8   0.99898    12.470
   -                 3-1     13.137 /_  122.1    1.0535    12.470
M1026760 ........... 1-2     12.601 /_   -0.1    1.0105    12.470
   -                 2-3     12.457 /_ -116.8   0.99897    12.470
   -                 3-1     13.136 /_  122.1    1.0534    12.470
N1136354 ........... 1-2     12.761 /_    1.4    1.0233    12.470
   -                 2-3     12.778 /_ -116.5    1.0247    12.470
   -                 3-1     13.179 /_  122.4    1.0569    12.470
L2745848 ........... 1-2     12.611 /_   -0.3    1.0113    12.470
   -                 2-3     12.427 /_ -116.9   0.99656    12.470
   -                 3-1     13.162 /_  122.1    1.0555    12.470
L2673308 ........... 1-2     12.609 /_   -0.3    1.0112    12.470
   -                 2-3     12.425 /_ -116.9   0.99641    12.470
   -                 3-1     13.161 /_  122.1    1.0554    12.470
L2991939 ........... 1-2     12.606 /_   -0.3    1.0109    12.470
   -                 2-3     12.422 /_ -116.9   0.99612    12.470
   -                 3-1     13.159 /_  122.1    1.0552    12.470
M1142851 ........... 1-2     13.031 /_    2.0     1.045    12.470
   -                 2-3     13.132 /_ -117.6    1.0531    12.470
   -                 3-1     13.162 /_  121.8    1.0555    12.470
196-31070 .......... 1-2      13.03 /_    2.0    1.0449    12.470
   -                 2-3     13.132 /_ -117.6    1.0531    12.470
   -                 3-1     13.162 /_  121.8    1.0555    12.470
M1069350 ........... 1-2     12.569 /_   -0.5     1.008    12.470
   -                 2-3     12.374 /_ -117.0   0.99229    12.470
   -                 3-1     13.128 /_  122.0    1.0528    12.470
N1144668 ........... 1-2     12.569 /_   -0.5    1.0079    12.470
   -                 2-3     12.374 /_ -117.0   0.99228    12.470
   -                 3-1     13.128 /_  122.0    1.0528    12.470
L2685805 ........... 1-2     10.912 /_  -29.9   0.87502    12.470
   -                 2-3 2.4489E-015 /_  -21.8 1.9638E-016    12.470
   -                 3-1     10.912 /_  150.1   0.87502    12.470
   -                 3-1     10.912 /_  150.1   0.87502    12.470
L3254238 ........... 1-2     12.793 /_   -0.4    1.0259    12.470
   -                 2-3     12.874 /_ -119.5    1.0324    12.470
   -                 3-1     13.012 /_  119.8    1.0434    12.470
M1047303 ........... 1-2     12.788 /_   -0.4    1.0255    12.470
   -                 2-3     12.869 /_ -119.4     1.032    12.470
   -                 3-1     13.009 /_  119.8    1.0432    12.470
M1047528 ........... 1-2     12.727 /_   -0.2    1.0206    12.470
   -                 2-3      12.52 /_ -116.8     1.004    12.470
   -                 3-1     13.274 /_  122.2    1.0645    12.470
L2858166 ........... 1-2     12.726 /_   -0.2    1.0205    12.470
   -                 2-3      12.52 /_ -116.8     1.004    12.470
   -                 3-1     13.274 /_  122.2    1.0644    12.470
M1142843 ........... 1-2     13.038 /_    1.9    1.0455    12.470
   -                 2-3     13.135 /_ -117.7    1.0533    12.470
   -                 3-1     13.166 /_  121.8    1.0558    12.470
L3081380 ........... 1-2     13.039 /_    1.9    1.0456    12.470
   -                 2-3     13.136 /_ -117.7    1.0534    12.470
   -                 3-1     13.166 /_  121.7    1.0558    12.470
N1142104 ........... 1-2       12.9 /_    3.5    1.0345    12.470
   -                 2-3     13.087 /_ -115.9    1.0495    12.470
   -                 3-1     13.104 /_  123.1    1.0509    12.470
M1108500 ........... 1-2     12.896 /_    3.5    1.0342    12.470
   -                 2-3     13.086 /_ -115.9    1.0494    12.470
   -                 3-1     13.103 /_  123.1    1.0508    12.470
M1186061 ........... 1-2     13.061 /_    1.3    1.0474    12.470
   -                 2-3     13.123 /_ -118.3    1.0523    12.470
   -                 3-1     13.163 /_  121.3    1.0556    12.470
M1069417 ........... 1-2     12.576 /_   -0.5    1.0085    12.470
   -                 2-3     12.383 /_ -116.9   0.99302    12.470
   -                 3-1     13.136 /_  122.0    1.0534    12.470
N1138597 ........... 1-2     12.575 /_   -0.5    1.0084    12.470
   -                 2-3     12.382 /_ -116.9   0.99296    12.470
   -                 3-1     13.136 /_  122.0    1.0534    12.470
M1142832 ........... 1-2     13.042 /_    1.9    1.0459    12.470
   -                 2-3     13.137 /_ -117.7    1.0535    12.470
   -                 3-1     13.167 /_  121.7    1.0559    12.470
L3160865 ........... 1-2     13.043 /_    1.9     1.046    12.470
   -                 2-3     13.138 /_ -117.7    1.0535    12.470
   -                 3-1     13.168 /_  121.7    1.0559    12.470
L2822869 ........... 1-2     12.647 /_   -0.1    1.0142    12.470
   -                 2-3     12.473 /_ -116.8    1.0002    12.470
   -                 3-1     13.188 /_  122.2    1.0576    12.470
M1026808 ........... 1-2     12.641 /_   -0.1    1.0137    12.470
   -                 2-3      12.47 /_ -116.8         1    12.470
   -                 3-1     13.181 /_  122.2     1.057    12.470
M1089198 ........... 1-2     12.831 /_    1.9     1.029    12.470
   -                 2-3     12.808 /_ -116.1    1.0271    12.470
   -                 3-1     13.195 /_  123.0    1.0581    12.470
M1089201 ........... 1-2     12.819 /_    1.8     1.028    12.470
   -                 2-3     12.803 /_ -116.2    1.0267    12.470
   -                 3-1     13.192 /_  122.9    1.0579    12.470
M1047763 ........... 1-2     12.567 /_   -0.4    1.0077    12.470
   -                 2-3     12.401 /_ -116.6   0.99443    12.470
   -                 3-1     13.203 /_  122.1    1.0588    12.470
M1047513 ........... 1-2     12.675 /_   -0.2    1.0165    12.470
   -                 2-3     12.487 /_ -116.8    1.0014    12.470
   -                 3-1      13.22 /_  122.2    1.0602    12.470
M1047507 ........... 1-2     12.662 /_   -0.2    1.0154    12.470
   -                 2-3     12.479 /_ -116.8    1.0007    12.470
   -                 3-1     13.207 /_  122.2    1.0591    12.470
M1142863 ........... 1-2     13.023 /_    2.1    1.0444    12.470
   -                 2-3     13.129 /_ -117.5    1.0529    12.470
   -                 3-1     13.158 /_  121.9    1.0552    12.470
M1142818 ........... 1-2     13.048 /_    1.9    1.0464    12.470
   -                 2-3      13.14 /_ -117.8    1.0538    12.470
   -                 3-1      13.17 /_  121.7    1.0561    12.470
P829965 ............ 1-2     13.048 /_    1.9    1.0463    12.470
   -                 2-3      13.14 /_ -117.8    1.0537    12.470
   -                 3-1     13.169 /_  121.7    1.0561    12.470
Q14733 ............. 1-2      12.84 /_   -0.1    1.0297    12.470
   -                 2-3      12.59 /_ -116.7    1.0096    12.470
   -                 3-1     13.361 /_  122.5    1.0714    12.470
M1047568 ........... 1-2     12.837 /_   -0.1    1.0294    12.470
   -                 2-3     12.588 /_ -116.7    1.0094    12.470
   -                 3-1     13.358 /_  122.5    1.0712    12.470
M1069419 ........... 1-2     12.579 /_   -0.4    1.0087    12.470
   -                 2-3     12.387 /_ -116.9   0.99331    12.470
   -                 3-1     13.138 /_  122.0    1.0536    12.470
M1069418 ........... 1-2     12.578 /_   -0.4    1.0086    12.470
   -                 2-3     12.385 /_ -116.9    0.9932    12.470
   -                 3-1     13.137 /_  122.0    1.0535    12.470
M1026824 ........... 1-2     12.526 /_   -0.6    1.0045    12.470
   -                 2-3     12.389 /_ -116.9    0.9935    12.470
   -                 3-1     13.146 /_  121.8    1.0542    12.470
M3032980 ........... 1-2     13.062 /_    1.3    1.0475    12.470
   -                 2-3     13.124 /_ -118.3    1.0524    12.470
   -                 3-1     13.164 /_  121.3    1.0556    12.470
M3032977 ........... 1-2     13.058 /_    1.4    1.0472    12.470
   -                 2-3     13.126 /_ -118.2    1.0526    12.470
   -                 3-1     13.165 /_  121.3    1.0557    12.470
M3763618 ........... 1-2     12.674 /_   -0.3    1.0163    12.470
   -                 2-3     12.489 /_ -116.9    1.0016    12.470
   -                 3-1     13.235 /_  122.1    1.0614    12.470
M1047490 ........... 1-2     12.637 /_   -0.2    1.0134    12.470
   -                 2-3     12.461 /_ -116.8    0.9993    12.470
   -                 3-1     13.187 /_  122.1    1.0575    12.470
M1047486 ........... 1-2     12.623 /_   -0.3    1.0123    12.470
   -                 2-3     12.443 /_ -116.9   0.99786    12.470
   -                 3-1     13.174 /_  122.1    1.0564    12.470
L2692654 ........... 1-2     11.275 /_  -27.1    0.9042    12.470
   -                 2-3 1.0168E-015 /_  -26.6 8.1543E-017    12.470
   -                 3-1     11.275 /_  152.9    0.9042    12.470
   -                 3-1     11.275 /_  152.9    0.9042    12.470
M1047669 ........... 1-2     12.656 /_   -0.3    1.0149    12.470
   -                 2-3     12.468 /_ -116.8   0.99986    12.470
   -                 3-1      13.23 /_  122.1     1.061    12.470
M1047672 ........... 1-2     12.656 /_   -0.3    1.0149    12.470
   -                 2-3     12.468 /_ -116.8   0.99984    12.470
   -                 3-1      13.23 /_  122.1    1.0609    12.470
M1125919 ........... 1-2     13.052 /_    1.8    1.0467    12.470
   -                 2-3     13.142 /_ -117.8    1.0539    12.470
   -                 3-1      13.17 /_  121.7    1.0562    12.470
M1142819 ........... 1-2     13.047 /_    1.9    1.0463    12.470
   -                 2-3      13.14 /_ -117.8    1.0537    12.470
   -                 3-1     13.169 /_  121.7    1.0561    12.470
M1089143 ........... 1-2     12.972 /_    1.1    1.0403    12.470
   -                 2-3     13.056 /_ -118.5     1.047    12.470
   -                 3-1     13.096 /_  121.0    1.0502    12.470
M1069481 ........... 1-2     12.611 /_   -0.3    1.0113    12.470
   -                 2-3     12.428 /_ -116.9   0.99663    12.470
   -                 3-1     13.163 /_  122.1    1.0555    12.470
M1026331 ........... 1-2     12.741 /_   -0.4    1.0217    12.470
   -                 2-3     12.833 /_ -119.4    1.0291    12.470
   -                 3-1     12.993 /_  119.7    1.0419    12.470
L3214055 ........... 1-2 6.2528E-016 /_    0.0 5.0143E-017    12.470
   -                 2-3     11.302 /_  -87.7   0.90633    12.470
   -                 3-1     11.302 /_   92.3   0.90633    12.470
   -                 3-1     11.302 /_   92.3   0.90633    12.470
M1108295 ........... 1-2     13.042 /_    1.5    1.0458    12.470
   -                 2-3     13.128 /_ -118.1    1.0528    12.470
   -                 3-1     13.157 /_  121.4    1.0551    12.470
L2936279 ........... 1-2     13.034 /_    1.5    1.0452    12.470
   -                 2-3      13.12 /_ -118.1    1.0521    12.470
   -                 3-1      13.15 /_  121.4    1.0545    12.470
L2841634 ........... 1-2     10.865 /_   32.0    0.8713    12.470
   -                 2-3     10.865 /_ -148.0    0.8713    12.470
   -                 3-1 2.0337E-015 /_  -63.4 1.6309E-016    12.470
   -                 3-1 2.0337E-015 /_  -63.4 1.6309E-016    12.470
M1089115 ........... 1-2     12.945 /_    0.5    1.0381    12.470
   -                 2-3      12.98 /_ -118.9    1.0409    12.470
   -                 3-1     13.076 /_  120.7    1.0486    12.470
M1125968 ........... 1-2     12.958 /_    2.8    1.0391    12.470
   -                 2-3     13.104 /_ -116.7    1.0508    12.470
   -                 3-1     13.127 /_  122.5    1.0527    12.470
L2891575 ........... 1-2 1.5007E-015 /_  -65.4 1.2035E-016    12.470
   -                 2-3     11.242 /_  -87.1   0.90152    12.470
   -                 3-1     11.242 /_   92.9   0.90152    12.470
   -                 3-1     11.242 /_   92.9   0.90152    12.470
M1069175 ........... 1-2     12.925 /_    0.4    1.0365    12.470
   -                 2-3     12.965 /_ -119.0    1.0397    12.470
   -                 3-1     13.065 /_  120.5    1.0477    12.470
M3763619 ........... 1-2     12.674 /_   -0.3    1.0163    12.470
   -                 2-3      12.49 /_ -116.9    1.0016    12.470
   -                 3-1     13.235 /_  122.1    1.0614    12.470
M1089196 ........... 1-2     12.838 /_    2.0    1.0295    12.470
   -                 2-3      12.81 /_ -116.1    1.0273    12.470
   -                 3-1     13.197 /_  123.0    1.0583    12.470
M1047484 ........... 1-2      12.62 /_   -0.3    1.0121    12.470
   -                 2-3      12.44 /_ -116.9   0.99757    12.470
   -                 3-1     13.171 /_  122.1    1.0562    12.470
L3010560 ........... 1-2     12.619 /_   -0.3    1.0119    12.470
   -                 2-3     12.438 /_ -116.9    0.9974    12.470
   -                 3-1     13.169 /_  122.1    1.0561    12.470
M1089112 ........... 1-2     12.938 /_    0.5    1.0376    12.470
   -                 2-3     12.973 /_ -118.9    1.0403    12.470
   -                 3-1      13.07 /_  120.6    1.0481    12.470
L2990826 ........... 1-2     12.917 /_    3.1    1.0358    12.470
   -                 2-3      13.08 /_ -116.4    1.0489    12.470
   -                 3-1     13.101 /_  122.7    1.0506    12.470
L2876797 ........... 1-2     12.573 /_   -0.4    1.0083    12.470
   -                 2-3     12.407 /_ -116.6   0.99491    12.470
   -                 3-1     13.204 /_  122.1    1.0588    12.470
R18241 ............. 1-2     12.571 /_   -0.4    1.0081    12.470
   -                 2-3     12.404 /_ -116.6   0.99471    12.470
   -                 3-1     13.203 /_  122.1    1.0588    12.470
M1047724 ........... 1-2     12.621 /_   -0.4    1.0121    12.470
   -                 2-3     12.442 /_ -116.7   0.99778    12.470
   -                 3-1     13.217 /_  122.1    1.0599    12.470
M1047722 ........... 1-2     12.618 /_   -0.4    1.0118    12.470
   -                 2-3      12.44 /_ -116.7    0.9976    12.470
   -                 3-1     13.216 /_  122.1    1.0598    12.470
D5534969-2_INT ..... 1-2     12.763 /_    1.4    1.0235    12.470
   -                 2-3     12.782 /_ -116.5     1.025    12.470
   -                 3-1      13.18 /_  122.4    1.0569    12.470
E182729 ............ 1-2     12.763 /_    1.4    1.0235    12.470
   -                 2-3     12.782 /_ -116.5     1.025    12.470
   -                 3-1     13.179 /_  122.4    1.0569    12.470
N1134477 ........... 1-2     12.765 /_    1.4    1.0236    12.470
   -                 2-3     12.783 /_ -116.5    1.0251    12.470
   -                 3-1      13.18 /_  122.4    1.0569    12.470
M1047699 ........... 1-2     12.645 /_   -0.3     1.014    12.470
   -                 2-3     12.461 /_ -116.8   0.99924    12.470
   -                 3-1     13.225 /_  122.1    1.0606    12.470
L2935554 ........... 1-2     12.639 /_   -0.3    1.0136    12.470
   -                 2-3     12.456 /_ -116.7    0.9989    12.470
   -                 3-1     13.223 /_  122.1    1.0604    12.470
M1047292 ........... 1-2     12.769 /_   -0.4     1.024    12.470
   -                 2-3     12.855 /_ -119.4    1.0309    12.470
   -                 3-1     13.002 /_  119.8    1.0426    12.470
L2766750 ........... 1-2 6.0425E-016 /_   48.8 4.8457E-017    12.470
   -                 2-3     11.295 /_  -87.7   0.90579    12.470
   -                 3-1     11.295 /_   92.3   0.90579    12.470
   -                 3-1     11.295 /_   92.3   0.90579    12.470
L2952003 ........... 1-2     12.921 /_    3.1    1.0362    12.470
   -                 2-3     13.084 /_ -116.4    1.0492    12.470
   -                 3-1     13.106 /_  122.7     1.051    12.470
M1026706 ........... 1-2     12.561 /_    0.0    1.0073    12.470
   -                 2-3     12.443 /_ -116.9   0.99783    12.470
   -                 3-1     13.091 /_  122.0    1.0498    12.470
N1140825 ........... 1-2     12.561 /_    0.0    1.0073    12.470
   -                 2-3     12.443 /_ -116.9   0.99783    12.470
   -                 3-1     13.091 /_  122.0    1.0498    12.470
M3763624 ........... 1-2     12.674 /_   -0.3    1.0163    12.470
   -                 2-3     12.489 /_ -116.9    1.0016    12.470
   -                 3-1     13.235 /_  122.1    1.0614    12.470
M1142839 ........... 1-2     13.041 /_    1.9    1.0458    12.470
   -                 2-3     13.137 /_ -117.7    1.0535    12.470
   -                 3-1     13.167 /_  121.7    1.0559    12.470
226-23751 .......... 1-2     13.055 /_    1.7    1.0469    12.470
   -                 2-3     13.143 /_ -117.9     1.054    12.470
   -                 3-1     13.169 /_  121.5     1.056    12.470
L3027157 ........... 1-2     12.588 /_   -0.4    1.0095    12.470
   -                 2-3     12.418 /_ -116.6   0.99584    12.470
   -                 3-1     13.207 /_  122.1    1.0591    12.470
L2973155 ........... 1-2     12.581 /_   -0.4    1.0089    12.470
   -                 2-3     12.413 /_ -116.6   0.99539    12.470
   -                 3-1     13.205 /_  122.1     1.059    12.470
M1186052 ........... 1-2      13.06 /_    1.3    1.0473    12.470
   -                 2-3     13.122 /_ -118.3    1.0523    12.470
   -                 3-1     13.162 /_  121.3    1.0555    12.470
198-5320 ........... 1-2      13.06 /_    1.3    1.0473    12.470
   -                 2-3     13.122 /_ -118.3    1.0522    12.470
   -                 3-1     13.162 /_  121.3    1.0555    12.470
M1069285 ........... 3-1     13.127 /_  122.0    1.0526    12.470
M4113348 ........... 3-1     13.127 /_  122.0    1.0526    12.470
L2879074 ........... 1-2     10.856 /_  -29.7   0.87059    12.470
   -                 2-3 1.2244E-015 /_ -111.8 9.8191E-017    12.470
   -                 3-1     10.856 /_  150.3   0.87059    12.470
   -                 3-1     10.856 /_  150.3   0.87059    12.470
E193509 ............ 1-2      13.04 /_    1.9    1.0457    12.470
   -                 2-3     13.136 /_ -117.7    1.0534    12.470
   -                 3-1     13.167 /_  121.7    1.0559    12.470
L3027116 ........... 1-2     12.784 /_   -0.4    1.0252    12.470
   -                 2-3     12.867 /_ -119.4    1.0318    12.470
   -                 3-1     13.008 /_  119.8    1.0431    12.470
M1166375 ........... 1-2     13.049 /_    1.7    1.0465    12.470
   -                 2-3     13.133 /_ -117.9    1.0532    12.470
   -                 3-1     13.168 /_  121.6    1.0559    12.470
M1069311 ........... 1-2     12.569 /_   -0.5    1.0079    12.470
   -                 2-3     12.373 /_ -117.0   0.99224    12.470
   -                 3-1     13.127 /_  122.0    1.0527    12.470
M1026662 ........... 1-2     12.556 /_    0.0    1.0069    12.470
   -                 2-3      12.44 /_ -116.9   0.99757    12.470
   -                 3-1     13.082 /_  122.0    1.0491    12.470
M1047713 ........... 1-2     12.636 /_   -0.3    1.0133    12.470
   -                 2-3     12.454 /_ -116.7   0.99871    12.470
   -                 3-1     13.222 /_  122.1    1.0603    12.470
M1047720 ........... 1-2     12.628 /_   -0.3    1.0127    12.470
   -                 2-3     12.448 /_ -116.7   0.99823    12.470
   -                 3-1     13.219 /_  122.1    1.0601    12.470
M1108298 ........... 1-2     13.057 /_    1.6    1.0471    12.470
   -                 2-3     13.144 /_ -118.0    1.0541    12.470
   -                 3-1     13.171 /_  121.5    1.0562    12.470
196-36167 .......... 1-2     13.057 /_    1.6    1.0471    12.470
   -                 2-3     13.144 /_ -118.0    1.0541    12.470
   -                 3-1     13.171 /_  121.5    1.0562    12.470
E183472 ............ 1-2     12.936 /_    3.1    1.0373    12.470
   -                 2-3     13.096 /_ -116.4    1.0502    12.470
   -                 3-1     13.118 /_  122.7    1.0519    12.470
L2989566 ........... 1-2     12.929 /_    3.1    1.0368    12.470
   -                 2-3     13.091 /_ -116.4    1.0498    12.470
   -                 3-1     13.113 /_  122.7    1.0516    12.470
P862322 ............ 1-2      12.92 /_    3.1    1.0361    12.470
   -                 2-3     13.082 /_ -116.4    1.0491    12.470
   -                 3-1     13.104 /_  122.7    1.0508    12.470
M1142868 ........... 1-2     13.013 /_    2.2    1.0436    12.470
   -                 2-3     13.125 /_ -117.4    1.0525    12.470
   -                 3-1     13.153 /_  122.0    1.0548    12.470
M1142869 ........... 1-2      13.01 /_    2.2    1.0433    12.470
   -                 2-3     13.124 /_ -117.4    1.0524    12.470
   -                 3-1     13.152 /_  122.0    1.0547    12.470
L2730187 ........... 1-2     11.268 /_  -27.3   0.90364    12.470
   -                 2-3 1.6553E-015 /_ -105.9 1.3274E-016    12.470
   -                 3-1     11.268 /_  152.7   0.90364    12.470
   -                 3-1     11.268 /_  152.7   0.90364    12.470
N1134474 ........... 1-2     12.788 /_    1.6    1.0255    12.470
   -                 2-3     12.792 /_ -116.4    1.0258    12.470
   -                 3-1     13.185 /_  122.6    1.0573    12.470
M1069496 ........... 1-2     12.784 /_    1.6    1.0252    12.470
   -                 2-3      12.79 /_ -116.4    1.0257    12.470
   -                 3-1     13.184 /_  122.6    1.0573    12.470
P850072 ............ 1-2     12.918 /_    3.1    1.0359    12.470
   -                 2-3      13.08 /_ -116.4     1.049    12.470
   -                 3-1     13.102 /_  122.7    1.0506    12.470
221-311609 ......... 1-2     12.918 /_    3.1    1.0359    12.470
   -                 2-3      13.08 /_ -116.4     1.049    12.470
   -                 3-1     13.102 /_  122.7    1.0506    12.470
M1027023 ........... 1-2     12.486 /_   -0.4    1.0013    12.470
   -                 2-3     12.389 /_ -117.0   0.99354    12.470
   -                 3-1     13.088 /_  121.7    1.0496    12.470
N1140828 ........... 1-2      12.56 /_    0.0    1.0072    12.470
   -                 2-3     12.442 /_ -116.9   0.99779    12.470
   -                 3-1     13.089 /_  122.0    1.0496    12.470
M1026708 ........... 1-2     12.559 /_    0.0    1.0072    12.470
   -                 2-3     12.442 /_ -116.9   0.99778    12.470
   -                 3-1     13.088 /_  122.0    1.0496    12.470
L2876814 ........... 1-2     12.536 /_   -0.6    1.0053    12.470
   -                 2-3     12.397 /_ -116.9   0.99412    12.470
   -                 3-1     13.152 /_  121.8    1.0547    12.470
M1026834 ........... 1-2     12.532 /_   -0.6    1.0049    12.470
   -                 2-3     12.393 /_ -116.9   0.99381    12.470
   -                 3-1      13.15 /_  121.8    1.0545    12.470
P827525 ............ 1-2     12.582 /_   -0.5    1.0089    12.470
   -                 2-3     12.435 /_ -116.9   0.99718    12.470
   -                 3-1     13.177 /_  121.8    1.0567    12.470
M1026902 ........... 1-2     12.577 /_   -0.5    1.0086    12.470
   -                 2-3     12.431 /_ -116.9    0.9969    12.470
   -                 3-1     13.174 /_  121.8    1.0565    12.470
N1144663 ........... 1-2     12.793 /_    1.6    1.0259    12.470
   -                 2-3     12.793 /_ -116.3    1.0259    12.470
   -                 3-1     13.186 /_  122.6    1.0574    12.470
M1089215 ........... 1-2     12.791 /_    1.6    1.0257    12.470
   -                 2-3     12.793 /_ -116.3    1.0259    12.470
   -                 3-1     13.186 /_  122.6    1.0574    12.470
M1047324 ........... 1-2     12.822 /_   -0.3    1.0283    12.470
   -                 2-3     12.897 /_ -119.5    1.0343    12.470
   -                 3-1     13.028 /_  119.8    1.0447    12.470
L2897780 ........... 1-2     12.817 /_   -0.4    1.0278    12.470
   -                 2-3     12.893 /_ -119.5    1.0339    12.470
   -                 3-1     13.025 /_  119.8    1.0445    12.470
M1069411 ........... 1-2     12.574 /_   -0.5    1.0084    12.470
   -                 2-3     12.381 /_ -116.9   0.99286    12.470
   -                 3-1     13.135 /_  122.0    1.0533    12.470
L2711226 ........... 1-2     13.046 /_    1.9    1.0462    12.470
   -                 2-3     13.139 /_ -117.7    1.0537    12.470
   -                 3-1     13.169 /_  121.7     1.056    12.470
L2879062 ........... 1-2 8.6768E-016 /_   31.6 6.9581E-017    12.470
   -                 2-3     11.265 /_  -86.2    0.9034    12.470
   -                 3-1     11.265 /_   93.8    0.9034    12.470
   -                 3-1     11.265 /_   93.8    0.9034    12.470
M1069533 ........... 1-2      12.76 /_    1.4    1.0233    12.470
   -                 2-3     12.776 /_ -116.5    1.0246    12.470
   -                 3-1     13.179 /_  122.4    1.0569    12.470
N1136356 ........... 1-2      12.76 /_    1.4    1.0233    12.470
   -                 2-3     12.776 /_ -116.5    1.0246    12.470
   -                 3-1     13.179 /_  122.4    1.0568    12.470
M1142865 ........... 1-2      13.02 /_    2.1    1.0441    12.470
   -                 2-3     13.128 /_ -117.5    1.0527    12.470
   -                 3-1     13.157 /_  121.9    1.0551    12.470
M1047526 ........... 1-2     12.731 /_   -0.2    1.0209    12.470
   -                 2-3     12.523 /_ -116.8    1.0043    12.470
   -                 3-1     13.277 /_  122.2    1.0647    12.470
N1136666 ........... 1-2      12.73 /_   -0.2    1.0208    12.470
   -                 2-3     12.522 /_ -116.8    1.0042    12.470
   -                 3-1     13.276 /_  122.2    1.0647    12.470
M1209790 ........... 1-2     13.072 /_    1.1    1.0482    12.470
   -                 2-3     13.119 /_ -118.6    1.0521    12.470
   -                 3-1     13.163 /_  121.1    1.0555    12.470
M1209788 ........... 1-2     13.071 /_    1.1    1.0482    12.470
   -                 2-3      13.12 /_ -118.5    1.0521    12.470
   -                 3-1     13.163 /_  121.1    1.0555    12.470
L2851933 ........... 1-2     12.562 /_    0.0    1.0074    12.470
   -                 2-3     12.444 /_ -116.9   0.99788    12.470
   -                 3-1     13.093 /_  122.0    1.0499    12.470
L3207907 ........... 1-2     12.562 /_    0.0    1.0074    12.470
   -                 2-3     12.444 /_ -116.9   0.99788    12.470
   -                 3-1     13.093 /_  122.0    1.0499    12.470
M1108380 ........... 1-2     12.925 /_    3.1    1.0365    12.470
   -                 2-3     13.087 /_ -116.4    1.0495    12.470
   -                 3-1      13.11 /_  122.7    1.0513    12.470
M1027043 ........... 1-2     12.483 /_   -0.4     1.001    12.470
   -                 2-3     12.388 /_ -117.0   0.99346    12.470
   -                 3-1     13.084 /_  121.7    1.0492    12.470
M1089131 ........... 1-2      12.94 /_    0.9    1.0377    12.470
   -                 2-3     13.021 /_ -118.7    1.0442    12.470
   -                 3-1     13.068 /_  120.8     1.048    12.470
M1026724 ........... 1-2     12.584 /_    0.0    1.0092    12.470
   -                 2-3     12.452 /_ -116.8   0.99854    12.470
   -                 3-1     13.118 /_  122.1    1.0519    12.470
R18243 ............. 1-2     12.584 /_    0.0    1.0091    12.470
   -                 2-3     12.452 /_ -116.8   0.99853    12.470
   -                 3-1     13.117 /_  122.1    1.0519    12.470
M1142860 ........... 1-2     13.026 /_    2.0    1.0446    12.470
   -                 2-3      13.13 /_ -117.5    1.0529    12.470
   -                 3-1      13.16 /_  121.9    1.0553    12.470
L2785534 ........... 1-2     11.316 /_   33.2   0.90747    12.470
   -                 2-3     11.316 /_ -146.8   0.90747    12.470
   -                 3-1 1.2862E-015 /_  -45.0 1.0315E-016    12.470
   -                 3-1 1.2862E-015 /_  -45.0 1.0315E-016    12.470
M1069556 ........... 1-2      12.76 /_    1.4    1.0233    12.470
   -                 2-3     12.776 /_ -116.5    1.0246    12.470
   -                 3-1     13.179 /_  122.4    1.0568    12.470
L2691967 ........... 1-2     12.701 /_    1.1    1.0185    12.470
   -                 2-3     12.758 /_ -116.7    1.0231    12.470
   -                 3-1     13.148 /_  122.0    1.0544    12.470
M1069504 ........... 1-2     12.691 /_    1.1    1.0177    12.470
   -                 2-3     12.753 /_ -116.7    1.0227    12.470
   -                 3-1     13.141 /_  122.0    1.0538    12.470
L2766718 ........... 1-2     12.904 /_    0.2    1.0348    12.470
   -                 2-3     12.952 /_ -119.2    1.0386    12.470
   -                 3-1     13.058 /_  120.3    1.0472    12.470
L3048206 ........... 1-2     12.899 /_    0.1    1.0344    12.470
   -                 2-3     12.948 /_ -119.2    1.0383    12.470
   -                 3-1     13.057 /_  120.3     1.047    12.470
P850080 ............ 1-2     12.918 /_    3.1    1.0359    12.470
   -                 2-3     13.081 /_ -116.4     1.049    12.470
   -                 3-1     13.102 /_  122.7    1.0507    12.470
221-311905 ......... 1-2     12.918 /_    3.1    1.0359    12.470
   -                 2-3     13.081 /_ -116.4     1.049    12.470
   -                 3-1     13.102 /_  122.7    1.0507    12.470
M1186072 ........... 1-2     13.064 /_    1.3    1.0476    12.470
   -                 2-3     13.123 /_ -118.4    1.0523    12.470
   -                 3-1     13.164 /_  121.2    1.0556    12.470
M1186067 ........... 1-2     13.063 /_    1.3    1.0476    12.470
   -                 2-3     13.123 /_ -118.4    1.0524    12.470
   -                 3-1     13.164 /_  121.2    1.0556    12.470
L2879075 ........... 1-2     10.847 /_  -29.7   0.86981    12.470
   -                 2-3 1.1369E-015 /_  -90.0 9.1168E-017    12.470
   -                 3-1     10.847 /_  150.3   0.86981    12.470
   -                 3-1     10.847 /_  150.3   0.86981    12.470
R42247 ............. 1-2     13.045 /_    1.8    1.0461    12.470
   -                 2-3     13.138 /_ -117.8    1.0535    12.470
   -                 3-1      13.17 /_  121.7    1.0561    12.470
M1149233 ........... 1-2     13.044 /_    1.8     1.046    12.470
   -                 2-3     13.137 /_ -117.8    1.0535    12.470
   -                 3-1     13.169 /_  121.7    1.0561    12.470
M1069136 ........... 1-2     12.864 /_   -0.3    1.0316    12.470
   -                 2-3     12.926 /_ -119.5    1.0365    12.470
   -                 3-1      13.05 /_  119.9    1.0465    12.470
L2914323 ........... 1-2     11.001 /_   31.9   0.88218    12.470
   -                 2-3     11.001 /_ -148.1   0.88218    12.470
   -                 3-1 9.0949E-016 /_  -90.0 7.2935E-017    12.470
   -                 3-1 9.0949E-016 /_  -90.0 7.2935E-017    12.470
M1026744 ........... 1-2     12.594 /_   -0.1    1.0099    12.470
   -                 2-3     12.455 /_ -116.8   0.99879    12.470
   -                 3-1     13.129 /_  122.1    1.0528    12.470
M1069457 ........... 1-2     12.596 /_   -0.4    1.0101    12.470
   -                 2-3     12.408 /_ -116.9   0.99504    12.470
   -                 3-1      13.15 /_  122.0    1.0545    12.470
M1149236 ........... 1-2     13.046 /_    1.8    1.0462    12.470
   -                 2-3     13.136 /_ -117.8    1.0534    12.470
   -                 3-1     13.169 /_  121.6    1.0561    12.470
P828362 ............ 1-2     12.689 /_   -0.3    1.0176    12.470
   -                 2-3     12.493 /_ -116.8    1.0019    12.470
   -                 3-1     13.248 /_  122.2    1.0624    12.470
N1136671 ........... 1-2     12.689 /_   -0.3    1.0175    12.470
   -                 2-3     12.493 /_ -116.8    1.0018    12.470
   -                 3-1     13.248 /_  122.2    1.0624    12.470
N1137992 ........... 1-2     12.658 /_   -0.2    1.0151    12.470
   -                 2-3     12.476 /_ -116.8    1.0005    12.470
   -                 3-1     13.204 /_  122.2    1.0588    12.470
196-29520 .......... 1-2     12.658 /_   -0.2     1.015    12.470
   -                 2-3     12.476 /_ -116.8    1.0005    12.470
   -                 3-1     13.203 /_  122.2    1.0588    12.470
M1108311 ........... 1-2     13.056 /_    1.7     1.047    12.470
   -                 2-3     13.143 /_ -118.0     1.054    12.470
   -                 3-1     13.169 /_  121.5    1.0561    12.470
L3048965 ........... 1-2      13.04 /_    1.9    1.0457    12.470
   -                 2-3     13.136 /_ -117.7    1.0534    12.470
   -                 3-1     13.167 /_  121.7    1.0559    12.470
L3216123 ........... 1-2     12.674 /_   -0.3    1.0163    12.470
   -                 2-3      12.48 /_ -116.8    1.0008    12.470
   -                 3-1     13.238 /_  122.2    1.0616    12.470
   -                 3-1     13.238 /_  122.2    1.0616    12.470
N1136996 ........... 1-2     12.665 /_   -0.3    1.0157    12.470
   -                 2-3     12.475 /_ -116.8    1.0004    12.470
   -                 3-1     13.234 /_  122.2    1.0613    12.470
L2936211 ........... 1-2 1.438E-015 /_   71.6 1.1532E-016    12.470
   -                 2-3     11.379 /_  -84.4   0.91251    12.470
   -                 3-1     11.379 /_   95.6   0.91251    12.470
   -                 3-1     11.379 /_   95.6   0.91251    12.470
L3125349 ........... 1-2      12.57 /_   -0.5     1.008    12.470
   -                 2-3     12.374 /_ -117.0   0.99233    12.470
   -                 3-1      13.13 /_  122.0    1.0529    12.470
N1138604 ........... 1-2     12.569 /_   -0.5     1.008    12.470
   -                 2-3     12.374 /_ -117.0   0.99232    12.470
   -                 3-1     13.129 /_  122.0    1.0529    12.470
D5710794-3_INT ..... 1-2     13.072 /_    0.8    1.0483    12.470
   -                 2-3     13.098 /_ -118.9    1.0504    12.470
   -                 3-1     13.149 /_  120.8    1.0544    12.470
E192860 ............ 1-2     13.072 /_    0.8    1.0483    12.470
   -                 2-3     13.099 /_ -118.9    1.0504    12.470
   -                 3-1     13.149 /_  120.8    1.0545    12.470
M1027002 ........... 1-2     12.497 /_   -0.5    1.0022    12.470
   -                 2-3     12.393 /_ -116.9   0.99385    12.470
   -                 3-1       13.1 /_  121.7    1.0505    12.470
L2673313 ........... 1-2     12.495 /_   -0.5     1.002    12.470
   -                 2-3     12.392 /_ -116.9   0.99376    12.470
   -                 3-1     13.097 /_  121.7    1.0503    12.470
   -                 3-1     13.097 /_  121.7    1.0503    12.470
M1047300 ........... 1-2     12.781 /_   -0.4    1.0249    12.470
   -                 2-3     12.864 /_ -119.4    1.0316    12.470
   -                 3-1     13.006 /_  119.8     1.043    12.470
M1047299 ........... 1-2     12.778 /_   -0.4    1.0247    12.470
   -                 2-3     12.862 /_ -119.4    1.0314    12.470
   -                 3-1     13.005 /_  119.8    1.0429    12.470
M1026701 ........... 1-2     12.559 /_    0.0    1.0071    12.470
   -                 2-3     12.442 /_ -116.9   0.99777    12.470
   -                 3-1     13.088 /_  122.0    1.0495    12.470
M1026697 ........... 1-2     12.558 /_    0.0    1.0071    12.470
   -                 2-3     12.442 /_ -116.9   0.99775    12.470
   -                 3-1     13.087 /_  122.0    1.0495    12.470
L3159037 ........... 1-2     10.876 /_   32.1   0.87219    12.470
   -                 2-3     10.876 /_ -147.9   0.87219    12.470
   -                 3-1 1.9293E-015 /_  -45.0 1.5472E-016    12.470
   -                 3-1 1.9293E-015 /_  -45.0 1.5472E-016    12.470
N1140823 ........... 1-2     12.563 /_    0.0    1.0074    12.470
   -                 2-3     12.444 /_ -116.9    0.9979    12.470
   -                 3-1     13.093 /_  122.0      1.05    12.470
L2955078 ........... 1-2     11.231 /_  -27.1   0.90065    12.470
   -                 2-3 1.438E-015 /_ -161.6 1.1532E-016    12.470
   -                 3-1     11.231 /_  152.9   0.90065    12.470
   -                 3-1     11.231 /_  152.9   0.90065    12.470
L2821010 ........... 1-2     10.951 /_  -29.9   0.87816    12.470
   -                 2-3          0 /_    0.0         0    12.470
   -                 3-1     10.951 /_  150.1   0.87816    12.470
   -                 3-1     10.951 /_  150.1   0.87816    12.470
M1125976 ........... 1-2     12.956 /_    2.8     1.039    12.470
   -                 2-3     13.103 /_ -116.7    1.0508    12.470
   -                 3-1     13.126 /_  122.5    1.0526    12.470
D5535139-1_INT ..... 1-2     12.931 /_    3.2     1.037    12.470
   -                 2-3     13.095 /_ -116.3    1.0501    12.470
   -                 3-1     13.116 /_  122.8    1.0518    12.470
E183473 ............ 1-2     12.931 /_    3.2     1.037    12.470
   -                 2-3     13.095 /_ -116.3    1.0501    12.470
   -                 3-1     13.116 /_  122.8    1.0518    12.470
M1125997 ........... 1-2     12.932 /_    3.1     1.037    12.470
   -                 2-3     13.095 /_ -116.3    1.0501    12.470
   -                 3-1     13.116 /_  122.8    1.0518    12.470
M1009784 ........... 1-2     12.515 /_   -0.6    1.0036    12.470
   -                 2-3     12.386 /_ -116.9    0.9933    12.470
   -                 3-1     13.137 /_  121.8    1.0535    12.470
M1009770 ........... 1-2     12.514 /_   -0.5    1.0035    12.470
   -                 2-3     12.386 /_ -116.9   0.99328    12.470
   -                 3-1     13.136 /_  121.8    1.0534    12.470
N1136669 ........... 1-2       12.7 /_   -0.3    1.0184    12.470
   -                 2-3     12.503 /_ -116.8    1.0026    12.470
   -                 3-1     13.254 /_  122.2    1.0629    12.470
L3103822 ........... 1-2     12.695 /_   -0.3     1.018    12.470
   -                 2-3       12.5 /_ -116.8    1.0024    12.470
   -                 3-1     13.251 /_  122.2    1.0626    12.470
M3768670 ........... 1-2     12.653 /_   -0.3    1.0147    12.470
   -                 2-3      12.48 /_ -116.9    1.0008    12.470
   -                 3-1     13.222 /_  122.0    1.0603    12.470
L2729428 ........... 1-2     10.871 /_  -29.7   0.87179    12.470
   -                 2-3 1.2862E-015 /_  -45.0 1.0315E-016    12.470
   -                 3-1     10.871 /_  150.3   0.87179    12.470
   -                 3-1     10.871 /_  150.3   0.87179    12.470
M1026926 ........... 1-2     12.558 /_   -0.5    1.0071    12.470
   -                 2-3      12.42 /_ -116.9   0.99596    12.470
   -                 3-1     13.159 /_  121.8    1.0553    12.470
221-242079 ......... 1-2     13.062 /_    1.3    1.0475    12.470
   -                 2-3     13.123 /_ -118.3    1.0524    12.470
   -                 3-1     13.163 /_  121.3    1.0556    12.470
L3011293 ........... 1-2     13.062 /_    1.3    1.0475    12.470
   -                 2-3     13.123 /_ -118.3    1.0524    12.470
   -                 3-1     13.163 /_  121.3    1.0556    12.470
M1108534 ........... 1-2     12.865 /_    2.2    1.0317    12.470
   -                 2-3      12.82 /_ -116.0    1.0281    12.470
   -                 3-1     13.204 /_  123.3    1.0588    12.470
Q1301 .............. 1-2      13.03 /_    2.0    1.0449    12.470
   -                 2-3     13.132 /_ -117.6    1.0531    12.470
   -                 3-1     13.162 /_  121.8    1.0555    12.470
L3160872 ........... 1-2     13.029 /_    2.0    1.0448    12.470
   -                 2-3     13.131 /_ -117.6     1.053    12.470
   -                 3-1     13.161 /_  121.8    1.0554    12.470
   -                 3-1     13.161 /_  121.8    1.0554    12.470
L2673318 ........... 1-2 9.1657E-016 /_  -82.9 7.3502E-017    12.470
   -                 2-3     11.149 /_  -82.7   0.89409    12.470
   -                 3-1     11.149 /_   97.3   0.89409    12.470
   -                 3-1     11.149 /_   97.3   0.89409    12.470
...